Version 4
SHEET 1 1728 740
WIRE 384 32 336 32
WIRE 528 32 464 32
WIRE 128 48 128 32
WIRE 256 48 128 48
WIRE 128 64 128 48
WIRE 256 144 256 48
WIRE 336 144 336 32
WIRE 416 144 336 144
WIRE 528 160 528 32
WIRE 528 160 480 160
WIRE 560 160 528 160
WIRE 656 160 624 160
WIRE 768 160 656 160
WIRE 416 176 384 176
WIRE -192 192 -224 192
WIRE -224 208 -224 192
WIRE 384 208 384 176
WIRE 448 208 448 192
WIRE -192 224 -192 192
WIRE 256 224 224 224
WIRE 336 224 336 144
WIRE 656 256 656 224
WIRE 768 272 768 240
WIRE -32 288 -96 288
WIRE 48 288 -32 288
WIRE -192 320 -192 304
WIRE -96 320 -96 288
WIRE -96 320 -192 320
WIRE 48 320 48 288
WIRE 656 352 656 320
WIRE 48 416 48 400
WIRE 144 416 48 416
WIRE 48 432 48 416
WIRE 656 448 656 416
WIRE 224 464 224 224
WIRE 224 464 192 464
WIRE 144 496 48 496
WIRE 48 512 48 496
WIRE 656 544 656 512
WIRE 656 640 656 608
WIRE 656 720 656 704
FLAG 128 144 0
FLAG 128 32 VSIN_IN
IOPIN 128 32 Out
FLAG 448 128 5V
IOPIN 448 128 In
FLAG 768 272 0
FLAG -32 352 0
FLAG 48 288 -5V
IOPIN 48 288 Out
FLAG 448 208 -5V
IOPIN 448 208 In
FLAG 384 208 0
FLAG 48 512 0
FLAG -192 112 5V
IOPIN -192 112 Out
FLAG -224 208 0
FLAG 768 160 Out
IOPIN 768 160 Out
FLAG 656 720 0
SYMBOL voltage 128 48 R0
WINDOW 123 -95 57 Left 2
WINDOW 39 0 0 Left 0
WINDOW 3 -208 17 Left 2
SYMATTR Value2 AC 2
SYMATTR Value SINE(0 2 10000)
SYMATTR InstName VSIN
SYMBOL res 752 144 R0
SYMATTR InstName R1
SYMATTR Value 25Meg
SYMBOL polcap -16 352 R180
WINDOW 0 24 57 Left 2
WINDOW 3 24 8 Left 2
SYMATTR InstName C2
SYMATTR Value 10µ
SYMATTR Description Capacitor
SYMATTR Type cap
SYMATTR SpiceLine V=10 Irms=17m Rser=1.9384 Lser=846.868p mfg="Würth Elektronik" pn="865250240001 WCAP-ASNP 4x5,5" type="Al electrolytic"
SYMBOL res 32 304 R0
SYMATTR InstName R2
SYMATTR Value 1k
SYMBOL res 352 128 R90
WINDOW 0 0 56 VBottom 2
WINDOW 3 32 56 VTop 2
SYMATTR InstName R3
SYMATTR Value 10k
SYMBOL res 352 208 R90
WINDOW 0 0 56 VBottom 2
WINDOW 3 32 56 VTop 2
SYMATTR InstName R4
SYMATTR Value 10k
SYMBOL res 480 16 R90
WINDOW 0 0 56 VBottom 2
WINDOW 3 32 56 VTop 2
SYMATTR InstName R5
SYMATTR Value 10k
SYMBOL LED 64 496 R180
WINDOW 0 24 64 Left 2
WINDOW 3 24 0 Left 2
SYMATTR InstName D1
SYMATTR Value NSPW500BS
SYMATTR Description Diode
SYMATTR Type diode
SYMBOL pot 128 400 R0
SYMATTR InstName U3
SYMATTR Value Rtot=10K wiper=.05
SYMBOL voltage -192 96 R0
WINDOW 123 0 0 Left 0
WINDOW 39 0 0 Left 0
SYMATTR InstName V1
SYMATTR Value 5
SYMBOL voltage -192 208 R0
WINDOW 123 0 0 Left 0
WINDOW 39 0 0 Left 0
SYMATTR InstName V2
SYMATTR Value 5
SYMBOL OpAmps\\AD8052 448 160 R0
WINDOW 3 54 26 Top 2
SYMATTR InstName U1
SYMBOL polcap 640 160 R0
SYMATTR InstName C1
SYMATTR Value 100µ
SYMATTR Description Capacitor
SYMATTR Type cap
SYMATTR SpiceLine V=10 Irms=17m Rser=1.9384 Lser=846.868p mfg="Würth Elektronik" pn="865250240001 WCAP-ASNP 4x5,5" type="Al electrolytic"
SYMBOL schottky 560 176 R270
WINDOW 0 32 32 VTop 2
WINDOW 3 0 32 VBottom 2
SYMATTR InstName D2
SYMATTR Value BAT48
SYMATTR Description Diode
SYMATTR Type diode
SYMBOL polcap 640 256 R0
SYMATTR InstName C3
SYMATTR Value 10µ
SYMATTR Description Capacitor
SYMATTR Type cap
SYMATTR SpiceLine V=10 Irms=17m Rser=1.9384 Lser=846.868p mfg="Würth Elektronik" pn="865250240001 WCAP-ASNP 4x5,5" type="Al electrolytic"
SYMBOL polcap 640 352 R0
SYMATTR InstName C4
SYMATTR Value 1µ
SYMATTR Description Capacitor
SYMATTR Type cap
SYMATTR SpiceLine V=10 Irms=17m Rser=1.9384 Lser=846.868p mfg="Würth Elektronik" pn="865250240001 WCAP-ASNP 4x5,5" type="Al electrolytic"
SYMBOL cap 640 448 R0
SYMATTR InstName C5
SYMATTR Value 100n
SYMBOL cap 640 544 R0
SYMATTR InstName C6
SYMATTR Value 10n
SYMBOL cap 640 640 R0
SYMATTR InstName C7
SYMATTR Value 1n
TEXT -160 -160 Left 0 !.include pot.sub
TEXT -128 -40 Left 2 !.tran 1m
